 LISTING FILE: sa00_flow.out
                         UNIT   6

 OPENING sa00_flow.bas
 FILE TYPE:BAS   UNIT   1

 OPENING sa00_flow.bcf
 FILE TYPE:BCF   UNIT  11

 OPENING sa00_flow.wel
 FILE TYPE:WEL   UNIT  16

 OPENING sa00_flow.drn
 FILE TYPE:DRN   UNIT  12

 OPENING sa00_flow.rch
 FILE TYPE:RCH   UNIT  13

 OPENING sa00_flow.oc
 FILE TYPE:OC   UNIT  22

 OPENING sa00_flow.hfb
 FILE TYPE:HFB   UNIT  17

 OPENING sa00_flow.wl5
 FILE TYPE:WL5   UNIT  21

 OPENING sa00_flow.pg5
 FILE TYPE:PG5   UNIT  19

 OPENING sa00_flow.ato
 FILE TYPE:ATO   UNIT  18

 OPENING sa00_flow.cw5
 FILE TYPE:DATA(BINARY)   UNIT 155

 OPENING sa00_flow.cbb
 FILE TYPE:DATA(BINARY)   UNIT  50

 OPENING sa00_flow.hds
 FILE TYPE:DATA(BINARY)   UNIT  30

 OPENING sa00_flow.ddn
 FILE TYPE:DATA(BINARY)   UNIT  31
1                          MODFLOW-SURFACT Version 4.0
      U.S. GEOLOGICAL SURVEY MODULAR FINITE-DIFFERENCE GROUND-WATER FLOW MODEL
    (HYDROGEOLOGIC'S ENHANCED VERSION OF USGS MODFLOW HYDROLOGIC MODELING SYSTEM)

 Lisbon MF6 Model                                                                                                                    
 2021                                                                                                                                
    12 LAYERS       279 ROWS       229 COLUMNS
       32 STRESS PERIOD(S) IN SIMULATION
 MODEL TIME UNIT IS DAYS
 CALCULATE FLOW BETWEEN ADJACENT CONSTANT-HEAD CELLS
***WARNING - IUNIT(12) IS SET TO 0 WHEN NEW ATO4 PACKAGE IS USED; IUNIT(12) DATA NOT REQUIRED

 I/O UNITS:
 ELEMENT OF IUNIT:   1   2   3   4   5   6   7   8   9  10  11  12  13  14  15  16  17  18  19  20
 PACKAGE NAME    : BCF WEL DRN RIV EVT TLK GHB RCH SIP DE4 SOR OC  PG4 STR PG2 HFB BTN LAK IBS CHD
         I/O UNIT:  11  16  12   0   0   0   0  13   0   0   0   0   0   0   0  17   0   0   0   0

 ELEMENT OF IUNIT:  21  22  23  24  25  26  27  28  29  30  31  32  33  34  35  36  37  38  39  40
 PACKAGE NAME    : FWL ATO PCN HCN OLF CHF PRL OBS GFD FHB IPT RCT SLC LMG PG5 RES WL5 SFR LK3 GAG
         I/O UNIT:   0  18   0   0   0   0   0   0   0   0   0   0   0   0  19   0  21   0   0   0

 ELEMENT OF IUNIT:  41  42  43  44  45  46
 PACKAGE NAME    : ET2 LUP SUB ZNB CFP TMP
         I/O UNIT:   0   0   0   0   0   0

 BAS5 -- BASIC MODEL PACKAGE, VERSION 5, 1/1/95 INPUT READ FROM UNIT  1
 ARRAYS RHS AND BUFF WILL HAVE SEPARATE MEMORY ALLOCATIONS
 INITIAL HEAD WILL BE KEPT THROUGHOUT THE SIMULATION
     10861586 ELEMENTS IN X ARRAY ARE USED BY BAS
     10861586 ELEMENTS OF X ARRAY USED
0ATO4 -- OUTPUT CONTROL PACKAGE WITH AUTO TIME STEP INPUT READ FROM UNIT 18
      20003 ELEMENTS IN X ARRAY ARE USED BY ATO4
   10881589 ELEMENTS OF X ARRAY USED

 BCF4 -- BLOCK-CENTERED FLOW PACKAGE, VERSION 4, 7/9/92 INPUT READ FROM UNIT 11
 TRANSIENT SIMULATION
 CELL-BY-CELL FLOWS WILL BE RECORDED ON UNIT 50
 HEAD AT CELLS THAT CONVERT TO DRY= -0.10000E+31
 WETTING CAPABILITY IS NOT ACTIVE
 CENTRAL DIFFERENCING USED FOR RELATIVE PERMEABILITY
 VERTICAL CONDUCTIVITY VALUES WILL BE READ IN BCF FILE
 ANISOTROPY WITHIN EACH LAYER IS UNIFORM
 RECTANGULAR MODFLOW GRID IS USED
      LAYER  AQUIFER TYPE    INTERBLOCK T
      -------------------------------------
         1         3        40-*PSEUDO-SOIL            
         2         3        40-*PSEUDO-SOIL            
         3         3        40-*PSEUDO-SOIL            
         4         3        40-*PSEUDO-SOIL            
         5         3        40-*PSEUDO-SOIL            
         6         3        40-*PSEUDO-SOIL            
         7         3        40-*PSEUDO-SOIL            
         8         3        40-*PSEUDO-SOIL            
         9         3        40-*PSEUDO-SOIL            
        10         3        40-*PSEUDO-SOIL            
        11         3        40-*PSEUDO-SOIL            
        12         3        40-*PSEUDO-SOIL            
 VARIABLY SATURATED FLOW OPTION IS USED FOR ALL LAYERS
  9200304 ELEMENTS IN X ARRAY ARE USED BY BCF
 20081893 ELEMENTS OF X ARRAY USED

 WL5 -- MULTI-NODE FRACTURE-WELL PACKAGE, VERSION 1, 04/22/05  INPUT READ FROM 21
 MAXIMUM OF       7MULTI-NODE FRACTURE WELLS
 WL5 - CELL-BY-CELL FLOWS WILL BE RECORDED ON UNIT155
 HEADS AT FWL5 NODES WILL NOT BE RECORDED
 FCONST5 IN 1/(LT) DIMENSIONS IS   0.323000E+11

     LSTART      LEND       ROW    COLUMN  ELEVATION    RADIUS        SP STRG   FWL #
 ------------------------------------------------------------------------------------
        10        10       228        77       0.000     1.000     0.000             1
        12        12       221        48       0.000     1.000     0.000             2
        12        12       226        79       0.000     1.000     0.000             3
        12        12       209        83       0.000     1.000     0.000             4
        12        12       220        45       0.000     1.000     0.000             5
        12        12       217        84       0.000     1.000     0.000             6
        12        12       213        86       0.000     1.000     0.000             7

 WEL1 -- WELL PACKAGE, VERSION 5, 9/1/93 INPUT READ FROM 16
 MAXIMUM OF  296 WELLS
 CELL-BY-CELL FLOWS WILL BE RECORDED ON UNIT 50
     1184 ELEMENTS IN X ARRAY ARE USED FOR WELLS
   20083077 ELEMENTS OF X ARRAY USED

 DRN1 -- DRAIN PACKAGE, VERSION 1, 9/1/87 INPUT READ FROM UNIT 12
 MAXIMUM OF  181 DRAINS
 CELL-BY-CELL FLOWS WILL BE RECORDED ON UNIT 50
      905 ELEMENTS IN X ARRAY ARE USED FOR DRAINS
   20083982 ELEMENTS OF X ARRAY USED

 RSF4 -- RECHARGE SEEPAGE FACE PACKAGE, 12/23/95  INPUT READ FROM UNIT 13
 OPTION 1 -- RECHARGE TO TOP LAYER
 CELL-BY-CELL FLOW TERMS WILL BE RECORDED ON UNIT 50
 MAXIMUM OF    0 SEEPAGE-FACE BOUNDARY NODES
 MAXIMUM OF    0 SEEPAGE-FACE BOUNDARY NODES
     127782 ELEMENTS OF X ARRAY USED FOR RSF4 PACKAGE
   20211764 ELEMENTS OF X ARRAY USED
0PCG5 -- ITERATIVE SPARSE MATRIX SOLVER, VERSION 01, 06/21/02 INPUT READ FROM UNIT 19
 MAXIMUM OF      30 CALLS OF SOLUTION ROUTINE
 MAXIMUM OF      15 INTERNAL ITERATIONS PER CALL TO SOLUTION ROUTINE
0

                                     SOLUTION BY ITERATIVE SPARSE MATRIX SOLVER
                                     -------------------------------------------
0                  MAXIMUM NUMBER OF CALLS TO PCG5 ROUTINE =       30
                       MAXIMUM ITERATIONS PER CALL TO PCG5 =       15
                 ONLY ACTIVE NODES INCLUDED IN THE SOLVER =        1
                        HEAD CHANGE CRITERION FOR CLOSURE =    0.10000E+00
                           SOLVER SUMMARY PRINTOUT INDEX  =        1
                             NATURAL ORDERING (0=OFF;1=ON) =        0
                                LEVEL OF ILU FACTORIZATION =        2
                                       ACCELERATION METHOD =        1
0FLOW SOLVER USES N-R METHOD
          BACKTRACKING INDEX (IBACKTR)  =        1
          BACKTRACKING FACTOR  (BFACT)  =    0.10000E+00
    RESIDUAL REDUCTION FACTOR (RESRED)  =    0.10000E+01
                                           INDEX FOR BOTTOM DAMPING (IDMPBOT) =         0
   80503691 ELEMENTS IN X ARRAY ARE USED BY PCG
  100715455 ELEMENTS OF X ARRAY USED
    3066796 ELEMENTS IN X ARRAY ARE USED FOR TRANSPORT
  103782251 ELEMENTS OF X ARRAY USED
0HFB1 -- HORIZONTAL FLOW BARRIER PACKAGE, VERSION 1, 06/13/86 INPUT READ FROM UNIT 17

          HORIZONTAL FLOW BARRIERS IN THE SUBSURFACE  (NHFB) =      1751
          HORIZONTAL FLOW BARRIERS ON THE SURFACE   (NHFBOL) =         0
   8755 ELEMENTS IN X ARRAY ARE USED FOR HORIZONTAL FLOW BARRIERS
  103791006 ELEMENTS OF X ARRAY USED
!!!X ARRAY Allocated for  103791017 Elements
!!!RX AND IR ARRAYS Allocated for         22 Elements

 BAS5 -- BASIC MODEL PACKAGE, VERSION 5, 1/1/95 INPUT READ FROM UNIT  1
1
 Lisbon MF6 Model                                                                                                                    
 2021                                                                                                                                



                     BOUNDARY ARRAY FOR LAYER   1
 READING ON UNIT   1 WITH FORMAT: (25I3)              



                     BOUNDARY ARRAY FOR LAYER   2
 READING ON UNIT   1 WITH FORMAT: (25I3)              



                     BOUNDARY ARRAY FOR LAYER   3
 READING ON UNIT   1 WITH FORMAT: (25I3)              



                     BOUNDARY ARRAY FOR LAYER   4
 READING ON UNIT   1 WITH FORMAT: (25I3)              



                     BOUNDARY ARRAY FOR LAYER   5
 READING ON UNIT   1 WITH FORMAT: (25I3)              



                     BOUNDARY ARRAY FOR LAYER   6
 READING ON UNIT   1 WITH FORMAT: (25I3)              



                     BOUNDARY ARRAY FOR LAYER   7
 READING ON UNIT   1 WITH FORMAT: (25I3)              



                     BOUNDARY ARRAY FOR LAYER   8
 READING ON UNIT   1 WITH FORMAT: (25I3)              



                     BOUNDARY ARRAY FOR LAYER   9
 READING ON UNIT   1 WITH FORMAT: (25I3)              



                     BOUNDARY ARRAY FOR LAYER  10
 READING ON UNIT   1 WITH FORMAT: (25I3)              



                     BOUNDARY ARRAY FOR LAYER  11
 READING ON UNIT   1 WITH FORMAT: (25I3)              



                     BOUNDARY ARRAY FOR LAYER  12
 READING ON UNIT   1 WITH FORMAT: (25I3)              
 
  NUMBER OF ACTIVE NODES IN BAS
     39415 FOR LAYER    1
     39415 FOR LAYER    2
     39415 FOR LAYER    3
     39415 FOR LAYER    4
     39415 FOR LAYER    5
     39415 FOR LAYER    6
     39415 FOR LAYER    7
     39415 FOR LAYER    8
     39415 FOR LAYER    9
     39415 FOR LAYER   10
     39415 FOR LAYER   11
     39415 FOR LAYER   12
  TOTAL NUMBER OF ACTIVE NODES =      472980

 AQUIFER HEAD WILL BE SET TO  99999.     AT ALL NO-FLOW NODES (IBOUND=0).

 DATUM ADJUSTMENT IS    0.00000    



                       INITIAL HEAD FOR LAYER   1
 READING ON UNIT   1 WITH FORMAT: (10e20.12)          



                       INITIAL HEAD FOR LAYER   2
 READING ON UNIT   1 WITH FORMAT: (10e20.12)          



                       INITIAL HEAD FOR LAYER   3
 READING ON UNIT   1 WITH FORMAT: (10e20.12)          



                       INITIAL HEAD FOR LAYER   4
 READING ON UNIT   1 WITH FORMAT: (10e20.12)          



                       INITIAL HEAD FOR LAYER   5
 READING ON UNIT   1 WITH FORMAT: (10e20.12)          



                       INITIAL HEAD FOR LAYER   6
 READING ON UNIT   1 WITH FORMAT: (10e20.12)          



                       INITIAL HEAD FOR LAYER   7
 READING ON UNIT   1 WITH FORMAT: (10e20.12)          



                       INITIAL HEAD FOR LAYER   8
 READING ON UNIT   1 WITH FORMAT: (10e20.12)          



                       INITIAL HEAD FOR LAYER   9
 READING ON UNIT   1 WITH FORMAT: (10e20.12)          



                       INITIAL HEAD FOR LAYER  10
 READING ON UNIT   1 WITH FORMAT: (10e20.12)          



                       INITIAL HEAD FOR LAYER  11
 READING ON UNIT   1 WITH FORMAT: (10e20.12)          



                       INITIAL HEAD FOR LAYER  12
 READING ON UNIT   1 WITH FORMAT: (10e20.12)          
0ATO4 -- OUTPUT CONTROL PACKAGE WITH AUTO TIME STEP INPUT READ FROM UNIT 18

 OUTPUT CONTROL IS SPECIFIED EVERY TIME STEP
 HEAD PRINT FORMAT CODE IS   0    DRAWDOWN PRINT FORMAT CODE IS   0

 HEADS WILL BE SAVED ON UNIT 30    DRAWDOWNS WILL BE SAVED ON UNIT 31

 OUTPUT CONTROL IS SPECIFIED EVERY TIME STEP

 BCF4 -- BLOCK-CENTERED FLOW PACKAGE, VERSION 4, 7/9/92 INPUT READ FROM UNIT 11

 COLUMN TO ROW ANISOTROPY =   1.000000    



                               DELR
 READING ON UNIT  11 WITH FORMAT: (10E12.4)           
   100.00       100.00       100.00       100.00       100.00       100.00       100.00       100.00       100.00       100.00    
   100.00       100.00       100.00       100.00       100.00       100.00       100.00       100.00       100.00       100.00    
   100.00       100.00       100.00       100.00       100.00       100.00       100.00       100.00       100.00       100.00    
   100.00       100.00       100.00       100.00       100.00       100.00       100.00       100.00       100.00       100.00    
   100.00       100.00       100.00       100.00       100.00       100.00       100.00       100.00       100.00       100.00    
   100.00       100.00       100.00       100.00       100.00       100.00       100.00       100.00       100.00       100.00    
   100.00       100.00       100.00       100.00       100.00       100.00       100.00       100.00       100.00       100.00    
   100.00       100.00       100.00       100.00       100.00       100.00       100.00       100.00       100.00       100.00    
   100.00       100.00       100.00       100.00       100.00       100.00       100.00       100.00       100.00       100.00    
   100.00       100.00       100.00       100.00       100.00       100.00       100.00       100.00       100.00       100.00    
   100.00       100.00       100.00       100.00       100.00       100.00       100.00       100.00       100.00       100.00    
   100.00       100.00       100.00       100.00       100.00       100.00       100.00       100.00       100.00       100.00    
   100.00       100.00       100.00       100.00       100.00       100.00       100.00       100.00       100.00       100.00    
   100.00       100.00       100.00       100.00       100.00       100.00       100.00       100.00       100.00       144.00    
   208.00       300.00       300.00       300.00       300.00       300.00       300.00       300.00       300.00       300.00    
   300.00       300.00       300.00       300.00       300.00       300.00       300.00       300.00       300.00       300.00    
   300.00       300.00       300.00       300.00       300.00       300.00       300.00       300.00       300.00       300.00    
   300.00       300.00       300.00       300.00       300.00       300.00       300.00       300.00       300.00       300.00    
   300.00       300.00       300.00       300.00       300.00       300.00       300.00       300.00       300.00       300.00    
   300.00       300.00       300.00       300.00       300.00       300.00       300.00       300.00       300.00       300.00    
   300.00       300.00       300.00       300.00       300.00       300.00       300.00       300.00       300.00       300.00    
   300.00       300.00       300.00       300.00       300.00       300.00       300.00       300.00       300.00       300.00    
   300.00       300.00       300.00       300.00       300.00       300.00       300.00       100.00       100.00    



                               DELC
 READING ON UNIT  11 WITH FORMAT: (10E12.4)           
   100.00       100.00       100.00       100.00       100.00       100.00       100.00       100.00       100.00       100.00    
   100.00       100.00       100.00       100.00       100.00       100.00       100.00       100.00       100.00       100.00    
   100.00       100.00       100.00       100.00       100.00       100.00       100.00       100.00       100.00       300.00    
   300.00       300.00       300.00       300.00       300.00       300.00       300.00       300.00       300.00       300.00    
   300.00       300.00       300.00       300.00       300.00       300.00       300.00       300.00       300.00       300.00    
   300.00       200.00       100.00       100.00       100.00       100.00       100.00       100.00       100.00       100.00    
   100.00       100.00       100.00       100.00       100.00       100.00       100.00       100.00       100.00       100.00    
   100.00       100.00       100.00       100.00       100.00       100.00       100.00       100.00       100.00       100.00    
   100.00       100.00       100.00       100.00       100.00       100.00       100.00       100.00       100.00       100.00    
   100.00       100.00       100.00       100.00       100.00       100.00       100.00       100.00       100.00       100.00    
   100.00       100.00       100.00       100.00       100.00       100.00       100.00       100.00       100.00       100.00    
   100.00       100.00       100.00       100.00       100.00       100.00       100.00       100.00       100.00       100.00    
   100.00       100.00       100.00       100.00       100.00       100.00       100.00       100.00       100.00       100.00    
   100.00       100.00       100.00       100.00       100.00       100.00       100.00       100.00       100.00       100.00    
   100.00       100.00       100.00       100.00       100.00       100.00       100.00       100.00       100.00       100.00    
   100.00       100.00       100.00       100.00       100.00       100.00       100.00       100.00       100.00       100.00    
   100.00       100.00       100.00       100.00       100.00       100.00       100.00       100.00       100.00       100.00    
   100.00       100.00       100.00       100.00       100.00       100.00       100.00       100.00       100.00       100.00    
   100.00       100.00       100.00       100.00       100.00       100.00       100.00       100.00       100.00       100.00    
   100.00       100.00       100.00       100.00       100.00       100.00       100.00       100.00       100.00       100.00    
   100.00       100.00       100.00       100.00       100.00       100.00       100.00       100.00       100.00       100.00    
   100.00       100.00       100.00       100.00       100.00       100.00       100.00       100.00       100.00       100.00    
   100.00       100.00       100.00       100.00       100.00       100.00       100.00       100.00       100.00       100.00    
   100.00       100.00       100.00       100.00       100.00       100.00       100.00       100.00       100.00       100.00    
   100.00       100.00       100.00       100.00       100.00       100.00       100.00       100.00       100.00       100.00    
   100.00       100.00       144.00       208.00       300.00       300.00       300.00       300.00       300.00       300.00    
   300.00       300.00       300.00       300.00       300.00       300.00       300.00       300.00       300.00       300.00    
   300.00       300.00       300.00       300.00       100.00       100.00       100.00       100.00       100.00    



               PRIMARY STORAGE COEF FOR LAYER   1
 READING ON UNIT  11 WITH FORMAT: (10e20.12)          



              HYD. COND. ALONG ROWS FOR LAYER   1
 READING ON UNIT  11 WITH FORMAT: (10e20.12)          



           VERTICAL HYDRAULIC COND. FOR LAYER   1
 READING ON UNIT  11 WITH FORMAT: (10e20.12)          



                             BOTTOM FOR LAYER   1
 READING ON UNIT  11 WITH FORMAT: (10e20.12)          

   SECONDARY STORAGE COEF =  0.1000000     FOR LAYER   1



                                TOP FOR LAYER   1
 READING ON UNIT  11 WITH FORMAT: (10e20.12)          



               PRIMARY STORAGE COEF FOR LAYER   2
 READING ON UNIT  11 WITH FORMAT: (10e20.12)          



              HYD. COND. ALONG ROWS FOR LAYER   2
 READING ON UNIT  11 WITH FORMAT: (10e20.12)          



           VERTICAL HYDRAULIC COND. FOR LAYER   2
 READING ON UNIT  11 WITH FORMAT: (10e20.12)          



                             BOTTOM FOR LAYER   2
 READING ON UNIT  11 WITH FORMAT: (10e20.12)          

   SECONDARY STORAGE COEF =  0.1000000     FOR LAYER   2



                                TOP FOR LAYER   2
 READING ON UNIT  11 WITH FORMAT: (10e20.12)          



               PRIMARY STORAGE COEF FOR LAYER   3
 READING ON UNIT  11 WITH FORMAT: (10e20.12)          



              HYD. COND. ALONG ROWS FOR LAYER   3
 READING ON UNIT  11 WITH FORMAT: (10e20.12)          



           VERTICAL HYDRAULIC COND. FOR LAYER   3
 READING ON UNIT  11 WITH FORMAT: (10e20.12)          



                             BOTTOM FOR LAYER   3
 READING ON UNIT  11 WITH FORMAT: (10e20.12)          

   SECONDARY STORAGE COEF =  0.1000000     FOR LAYER   3



                                TOP FOR LAYER   3
 READING ON UNIT  11 WITH FORMAT: (10e20.12)          



               PRIMARY STORAGE COEF FOR LAYER   4
 READING ON UNIT  11 WITH FORMAT: (10e20.12)          



              HYD. COND. ALONG ROWS FOR LAYER   4
 READING ON UNIT  11 WITH FORMAT: (10e20.12)          



           VERTICAL HYDRAULIC COND. FOR LAYER   4
 READING ON UNIT  11 WITH FORMAT: (10e20.12)          



                             BOTTOM FOR LAYER   4
 READING ON UNIT  11 WITH FORMAT: (10e20.12)          

   SECONDARY STORAGE COEF =  0.1000000     FOR LAYER   4



                                TOP FOR LAYER   4
 READING ON UNIT  11 WITH FORMAT: (10e20.12)          



               PRIMARY STORAGE COEF FOR LAYER   5
 READING ON UNIT  11 WITH FORMAT: (10e20.12)          



              HYD. COND. ALONG ROWS FOR LAYER   5
 READING ON UNIT  11 WITH FORMAT: (10e20.12)          



           VERTICAL HYDRAULIC COND. FOR LAYER   5
 READING ON UNIT  11 WITH FORMAT: (10e20.12)          



                             BOTTOM FOR LAYER   5
 READING ON UNIT  11 WITH FORMAT: (10e20.12)          

   SECONDARY STORAGE COEF =  0.1000000     FOR LAYER   5



                                TOP FOR LAYER   5
 READING ON UNIT  11 WITH FORMAT: (10e20.12)          



               PRIMARY STORAGE COEF FOR LAYER   6
 READING ON UNIT  11 WITH FORMAT: (10e20.12)          



              HYD. COND. ALONG ROWS FOR LAYER   6
 READING ON UNIT  11 WITH FORMAT: (10e20.12)          



           VERTICAL HYDRAULIC COND. FOR LAYER   6
 READING ON UNIT  11 WITH FORMAT: (10e20.12)          



                             BOTTOM FOR LAYER   6
 READING ON UNIT  11 WITH FORMAT: (10e20.12)          

   SECONDARY STORAGE COEF =  0.1000000     FOR LAYER   6



                                TOP FOR LAYER   6
 READING ON UNIT  11 WITH FORMAT: (10e20.12)          



               PRIMARY STORAGE COEF FOR LAYER   7
 READING ON UNIT  11 WITH FORMAT: (10e20.12)          



              HYD. COND. ALONG ROWS FOR LAYER   7
 READING ON UNIT  11 WITH FORMAT: (10e20.12)          



           VERTICAL HYDRAULIC COND. FOR LAYER   7
 READING ON UNIT  11 WITH FORMAT: (10e20.12)          



                             BOTTOM FOR LAYER   7
 READING ON UNIT  11 WITH FORMAT: (10e20.12)          

   SECONDARY STORAGE COEF =  0.1000000     FOR LAYER   7



                                TOP FOR LAYER   7
 READING ON UNIT  11 WITH FORMAT: (10e20.12)          



               PRIMARY STORAGE COEF FOR LAYER   8
 READING ON UNIT  11 WITH FORMAT: (10e20.12)          



              HYD. COND. ALONG ROWS FOR LAYER   8
 READING ON UNIT  11 WITH FORMAT: (10e20.12)          



           VERTICAL HYDRAULIC COND. FOR LAYER   8
 READING ON UNIT  11 WITH FORMAT: (10e20.12)          



                             BOTTOM FOR LAYER   8
 READING ON UNIT  11 WITH FORMAT: (10e20.12)          

   SECONDARY STORAGE COEF =  0.1000000     FOR LAYER   8



                                TOP FOR LAYER   8
 READING ON UNIT  11 WITH FORMAT: (10e20.12)          



               PRIMARY STORAGE COEF FOR LAYER   9
 READING ON UNIT  11 WITH FORMAT: (10e20.12)          



              HYD. COND. ALONG ROWS FOR LAYER   9
 READING ON UNIT  11 WITH FORMAT: (10e20.12)          



           VERTICAL HYDRAULIC COND. FOR LAYER   9
 READING ON UNIT  11 WITH FORMAT: (10e20.12)          



                             BOTTOM FOR LAYER   9
 READING ON UNIT  11 WITH FORMAT: (10e20.12)          

   SECONDARY STORAGE COEF =  0.1000000     FOR LAYER   9



                                TOP FOR LAYER   9
 READING ON UNIT  11 WITH FORMAT: (10e20.12)          



               PRIMARY STORAGE COEF FOR LAYER  10
 READING ON UNIT  11 WITH FORMAT: (10e20.12)          



              HYD. COND. ALONG ROWS FOR LAYER  10
 READING ON UNIT  11 WITH FORMAT: (10e20.12)          



           VERTICAL HYDRAULIC COND. FOR LAYER  10
 READING ON UNIT  11 WITH FORMAT: (10e20.12)          



                             BOTTOM FOR LAYER  10
 READING ON UNIT  11 WITH FORMAT: (10e20.12)          

   SECONDARY STORAGE COEF =  0.1000000     FOR LAYER  10



                                TOP FOR LAYER  10
 READING ON UNIT  11 WITH FORMAT: (10e20.12)          



               PRIMARY STORAGE COEF FOR LAYER  11
 READING ON UNIT  11 WITH FORMAT: (10e20.12)          



              HYD. COND. ALONG ROWS FOR LAYER  11
 READING ON UNIT  11 WITH FORMAT: (10e20.12)          



           VERTICAL HYDRAULIC COND. FOR LAYER  11
 READING ON UNIT  11 WITH FORMAT: (10e20.12)          



                             BOTTOM FOR LAYER  11
 READING ON UNIT  11 WITH FORMAT: (10e20.12)          

   SECONDARY STORAGE COEF =  0.1000000     FOR LAYER  11



                                TOP FOR LAYER  11
 READING ON UNIT  11 WITH FORMAT: (10e20.12)          



               PRIMARY STORAGE COEF FOR LAYER  12
 READING ON UNIT  11 WITH FORMAT: (10e20.12)          



              HYD. COND. ALONG ROWS FOR LAYER  12
 READING ON UNIT  11 WITH FORMAT: (10e20.12)          



           VERTICAL HYDRAULIC COND. FOR LAYER  12
 READING ON UNIT  11 WITH FORMAT: (10e20.12)          



                             BOTTOM FOR LAYER  12
 READING ON UNIT  11 WITH FORMAT: (10e20.12)          

   SECONDARY STORAGE COEF =  0.1000000     FOR LAYER  12



                                TOP FOR LAYER  12
 READING ON UNIT  11 WITH FORMAT: (10e20.12)          
 integer workspace used:      7447526
0HFB1 -- HORIZONTAL FLOW BARRIER PACKAGE, VERSION 1, 06/13/86 INPUT READ FROM UNIT 17



 HORIZONTAL FLOW BARRIERS -- LISTED BY LAYERS.  WITHIN EACH LAYER, THE LOCATION OF A BARRIER IS IDENTIFIED BY
 THE 2 CELLS ON BOTH SIDES OF THE BARRIER.  THE ROW AND COLUMN NUMBER OF THE TWO CELLS ARE RESPECTIVELY 
 IROW1, ICOL1, AND IROW2, ICOL2.
0   46 HORIZONTAL FLOW BARRIERS IN LAYER    1
                     IROW1     ICOL1     IROW2     ICOL2  HYD. COND./WIDTH  BARRIER NO.
                     -----------------------------------------------------------------------
                       62        35        62        34       0.1000E-07          1
                       63        35        63        34       0.1000E-07          2
                       64        35        65        35       0.1000E-07          3
                       64        35        64        34       0.1000E-07          4
                       65        36        65        35       0.1000E-07          5
                       66        36        66        35       0.1000E-07          6
                       67        36        68        36       0.1000E-07          7
                       67        36        67        35       0.1000E-07          8
                       68        37        68        36       0.1000E-07          9
                       69        37        69        36       0.1000E-07         10
                       70        37        71        37       0.1000E-07         11
                       70        37        70        36       0.1000E-07         12
                       95        44        95        43       0.1000E-04         13
                       96        44        96        43       0.1000E-04         14
                       97        44        97        43       0.1000E-04         15
                       98        44        98        43       0.1000E-04         16
                       99        44        99        43       0.1000E-04         17
                      100        44       100        43       0.1000E-04         18
                      101        44       101        43       0.1000E-04         19
                      102        44       102        43       0.1000E-04         20
                      103        44       103        43       0.1000E-04         21
                      104        44       104        43       0.1000E-04         22
                      105        44       105        43       0.1000E-04         23
                      133        58       133        57       0.1000E-07         24
                      134        58       134        57       0.1000E-07         25
                      135        58       135        57       0.1000E-07         26
                      136        57       136        58       0.1000E-07         27
                      137        57       137        58       0.1000E-07         28
                      138        57       139        57       0.1000E-07         29
                      138        57       138        58       0.1000E-07         30
                      139        56       139        57       0.1000E-07         31
                      140        38       140        37       0.1000E-04         32
                      141        38       141        37       0.1000E-04         33
                      142        38       142        37       0.1000E-04         34
                      143        37       142        37       0.1000E-04         35
                      143        37       143        36       0.1000E-04         36
                      144        37       144        36       0.1000E-04         37
                      145        37       145        36       0.1000E-04         38
                      146        36       145        36       0.1000E-04         39
                      146        36       146        35       0.1000E-04         40
                      147        36       147        35       0.1000E-04         41
                      148        36       148        35       0.1000E-04         42
                      149        36       149        35       0.1000E-04         43
                      150        35       149        35       0.1000E-04         44
                      150        35       150        34       0.1000E-04         45
                      151        35       151        34       0.1000E-04         46
0  155 HORIZONTAL FLOW BARRIERS IN LAYER    2
                     IROW1     ICOL1     IROW2     ICOL2  HYD. COND./WIDTH  BARRIER NO.
                     -----------------------------------------------------------------------
                       62        35        62        34       0.1000E-07         47
                       63        35        63        34       0.1000E-07         48
                       64        35        65        35       0.1000E-07         49
                       64        35        64        34       0.1000E-07         50
                       65        36        65        35       0.1000E-07         51
                       66        36        66        35       0.1000E-07         52
                       67        36        68        36       0.1000E-07         53
                       67        36        67        35       0.1000E-07         54
                       68        37        68        36       0.1000E-07         55
                       69        37        69        36       0.1000E-07         56
                       70        37        71        37       0.1000E-07         57
                       70        37        70        36       0.1000E-07         58
                       95        44        95        43       0.1000E-04         59
                       96        44        96        43       0.1000E-04         60
                       97        44        97        43       0.1000E-04         61
                       98        44        98        43       0.1000E-04         62
                       99        44        99        43       0.1000E-04         63
                      100        44       100        43       0.1000E-04         64
                      101        44       101        43       0.1000E-04         65
                      102        44       102        43       0.1000E-04         66
                      102        61       102        62       0.1000E-07         67
                      103        44       103        43       0.1000E-04         68
                      103        61       103        62       0.1000E-07         69
                      104        44       104        43       0.1000E-04         70
                      104        61       104        62       0.1000E-07         71
                      105        44       105        43       0.1000E-04         72
                      105        61       105        62       0.1000E-07         73
                      106        44       106        43       0.1000E-04         74
                      106        61       106        62       0.1000E-07         75
                      107        44       107        43       0.1000E-04         76
                      107        61       108        61       0.1000E-07         77
                      107        61       107        62       0.1000E-07         78
                      108        44       108        43       0.1000E-04         79
                      108        60       108        61       0.1000E-07         80
                      109        44       109        43       0.1000E-04         81
                      109        60       109        61       0.1000E-07         82
                      110        44       110        43       0.1000E-04         83
                      110        60       111        60       0.1000E-07         84
                      110        60       110        61       0.1000E-07         85
                      111        44       111        43       0.1000E-04         86
                      111        59       111        60       0.1000E-07         87
                      112        44       112        43       0.1000E-04         88
                      112        59       112        60       0.1000E-07         89
                      113        44       113        43       0.1000E-04         90
                      113        59       114        59       0.1000E-07         91
                      113        59       113        60       0.1000E-07         92
                      114        44       114        43       0.1000E-04         93
                      114        58       114        59       0.1000E-07         94
                      115        44       115        43       0.1000E-04         95
                      115        58       115        59       0.1000E-07         96
                      116        44       116        43       0.1000E-04         97
                      116        58       116        59       0.1000E-07         98
                      117        44       117        43       0.1000E-04         99
                      117        58       117        59       0.1000E-07        100
                      118        44       118        43       0.1000E-04        101
                      118        58       118        59       0.1000E-07        102
                      119        43       118        43       0.1000E-04        103
                      119        43       119        42       0.1000E-04        104
                      119        58       119        59       0.1000E-07        105
                      120        43       120        42       0.1000E-04        106
                      120        58       120        59       0.1000E-07        107
                      121        43       121        42       0.1000E-04        108
                      121        58       121        59       0.1000E-07        109
                      122        42       123        42       0.1000E-04        110
                      122        42       122        43       0.1000E-04        111
                      122        58       122        59       0.1000E-07        112
                      123        42       123        41       0.1000E-04        113
                      123        58       123        59       0.1000E-07        114
                      124        42       124        41       0.1000E-04        115
                      124        58       124        59       0.1000E-07        116
                      125        41       124        41       0.1000E-04        117
                      125        41       125        40       0.1000E-04        118
                      125        58       125        59       0.1000E-07        119
                      126        41       126        40       0.1000E-04        120
                      126        58       126        57       0.1000E-07        121
                      126        58       125        58       0.1000E-07        122
                      127        40       126        40       0.1000E-04        123
                      127        40       127        39       0.1000E-04        124
                      127        58       127        57       0.1000E-07        125
                      128        40       128        39       0.1000E-04        126
                      128        58       128        57       0.1000E-07        127
                      129        40       129        39       0.1000E-04        128
                      129        58       129        57       0.1000E-07        129
                      130        39       130        40       0.1000E-04        130
                      130        58       130        57       0.1000E-07        131
                      131        39       132        39       0.1000E-04        132
                      131        39       131        40       0.1000E-04        133
                      131        58       131        57       0.1000E-07        134
                      132        39       132        38       0.1000E-04        135
                      132        58       132        57       0.1000E-07        136
                      133        39       133        38       0.1000E-04        137
                      133        58       133        57       0.1000E-07        138
                      134        38       133        38       0.1000E-04        139
                      134        38       134        37       0.1000E-04        140
                      134        58       134        57       0.1000E-07        141
                      135        38       135        37       0.1000E-04        142
                      135        58       135        57       0.1000E-07        143
                      136        38       136        37       0.1000E-04        144
                      136        57       136        58       0.1000E-07        145
                      137        38       137        37       0.1000E-04        146
                      137        57       137        58       0.1000E-07        147
                      138        38       138        37       0.1000E-04        148
                      138        57       139        57       0.1000E-07        149
                      138        57       138        58       0.1000E-07        150
                      139        38       139        37       0.1000E-04        151
                      139        57       139        56       0.1000E-07        152
                      140        38       140        37       0.1000E-04        153
                      140        57       140        56       0.1000E-07        154
                      141        38       141        37       0.1000E-04        155
                      141        57       141        56       0.1000E-07        156
                      142        38       142        37       0.1000E-04        157
                      142        56       142        57       0.1000E-07        158
                      143        37       142        37       0.1000E-04        159
                      143        37       143        36       0.1000E-04        160
                      143        56       144        56       0.1000E-07        161
                      143        56       143        57       0.1000E-07        162
                      144        37       144        36       0.1000E-04        163
                      144        56       144        55       0.1000E-07        164
                      145        37       145        36       0.1000E-04        165
                      145        55       145        56       0.1000E-07        166
                      146        36       145        36       0.1000E-04        167
                      146        36       146        35       0.1000E-04        168
                      146        55       146        56       0.1000E-07        169
                      147        36       147        35       0.1000E-04        170
                      148        36       148        35       0.1000E-04        171
                      149        36       149        35       0.1000E-04        172
                      150        35       149        35       0.1000E-04        173
                      150        35       150        34       0.1000E-04        174
                      151        35       151        34       0.1000E-04        175
                      203        33       204        33       0.1000E-03        176
                      204        34       204        33       0.1000E-03        177
                      205        34       204        34       0.1000E-03        178
                      205        35       206        35       0.1000E-03        179
                      205        35       205        34       0.1000E-03        180
                      206        36       207        36       0.1000E-03        181
                      206        36       206        35       0.1000E-03        182
                      207        36       207        37       0.1000E-03        183
                      208        37       209        37       0.1000E-03        184
                      208        37       208        36       0.1000E-03        185
                      209        37       209        38       0.1000E-03        186
                      210        37       210        38       0.1000E-03        187
                      211        37       211        38       0.1000E-03        188
                      212        37       213        37       0.1000E-03        189
                      212        37       212        38       0.1000E-03        190
                      213        37       213        36       0.1000E-03        191
                      214        37       214        36       0.1000E-03        192
                      215        36       215        37       0.1000E-03        193
                      216        36       217        36       0.1000E-03        194
                      216        36       216        37       0.1000E-03        195
                      217        36       217        35       0.1000E-03        196
                      218        36       218        35       0.1000E-03        197
                      219        35       219        36       0.1000E-03        198
                      220        35       219        35       0.1000E-03        199
                      220        35       220        34       0.1000E-03        200
                      221        34       220        34       0.1000E-03        201
0  155 HORIZONTAL FLOW BARRIERS IN LAYER    3
                     IROW1     ICOL1     IROW2     ICOL2  HYD. COND./WIDTH  BARRIER NO.
                     -----------------------------------------------------------------------
                       95        44        95        43       0.1000E-04        202
                       96        44        96        43       0.1000E-04        203
                       97        44        97        43       0.1000E-04        204
                       98        44        98        43       0.1000E-04        205
                       99        44        99        43       0.1000E-04        206
                      100        44       100        43       0.1000E-04        207
                      101        44       101        43       0.1000E-04        208
                      102        44       102        43       0.1000E-04        209
                      102        61       102        62       0.1000E-07        210
                      103        44       103        43       0.1000E-04        211
                      103        61       103        62       0.1000E-07        212
                      104        44       104        43       0.1000E-04        213
                      104        61       104        62       0.1000E-07        214
                      105        44       105        43       0.1000E-04        215
                      105        61       105        62       0.1000E-07        216
                      106        44       106        43       0.1000E-04        217
                      106        61       106        62       0.1000E-07        218
                      107        44       107        43       0.1000E-04        219
                      107        61       108        61       0.1000E-07        220
                      107        61       107        62       0.1000E-07        221
                      108        44       108        43       0.1000E-04        222
                      108        60       108        61       0.1000E-07        223
                      109        44       109        43       0.1000E-04        224
                      109        60       109        61       0.1000E-07        225
                      110        44       110        43       0.1000E-04        226
                      110        60       111        60       0.1000E-07        227
                      110        60       110        61       0.1000E-07        228
                      111        44       111        43       0.1000E-04        229
                      111        59       111        60       0.1000E-07        230
                      112        44       112        43       0.1000E-04        231
                      112        59       112        60       0.1000E-07        232
                      113        44       113        43       0.1000E-04        233
                      113        59       114        59       0.1000E-07        234
                      113        59       113        60       0.1000E-07        235
                      114        44       114        43       0.1000E-04        236
                      114        58       114        59       0.1000E-07        237
                      115        44       115        43       0.1000E-04        238
                      115        58       115        59       0.1000E-07        239
                      116        44       116        43       0.1000E-04        240
                      116        58       116        59       0.1000E-07        241
                      117        44       117        43       0.1000E-04        242
                      117        58       117        59       0.1000E-07        243
                      118        44       118        43       0.1000E-04        244
                      118        58       118        59       0.1000E-07        245
                      119        43       118        43       0.1000E-04        246
                      119        43       119        42       0.1000E-04        247
                      119        58       119        59       0.1000E-07        248
                      120        43       120        42       0.1000E-04        249
                      120        58       120        59       0.1000E-07        250
                      121        43       121        42       0.1000E-04        251
                      121        58       121        59       0.1000E-07        252
                      122        42       123        42       0.1000E-04        253
                      122        42       122        43       0.1000E-04        254
                      122        58       122        59       0.1000E-07        255
                      123        42       123        41       0.1000E-04        256
                      123        58       123        59       0.1000E-07        257
                      124        42       124        41       0.1000E-04        258
                      124        58       124        59       0.1000E-07        259
                      125        41       124        41       0.1000E-04        260
                      125        41       125        40       0.1000E-04        261
                      125        58       125        59       0.1000E-07        262
                      126        41       126        40       0.1000E-04        263
                      126        58       126        57       0.1000E-07        264
                      126        58       125        58       0.1000E-07        265
                      127        40       126        40       0.1000E-04        266
                      127        40       127        39       0.1000E-04        267
                      127        58       127        57       0.1000E-07        268
                      128        40       128        39       0.1000E-04        269
                      128        58       128        57       0.1000E-07        270
                      129        40       129        39       0.1000E-04        271
                      129        58       129        57       0.1000E-07        272
                      130        39       130        40       0.1000E-04        273
                      130        58       130        57       0.1000E-07        274
                      131        39       132        39       0.1000E-04        275
                      131        39       131        40       0.1000E-04        276
                      131        58       131        57       0.1000E-07        277
                      132        39       132        38       0.1000E-04        278
                      132        58       132        57       0.1000E-07        279
                      133        39       133        38       0.1000E-04        280
                      133        58       133        57       0.1000E-07        281
                      134        38       133        38       0.1000E-04        282
                      134        38       134        37       0.1000E-04        283
                      134        58       134        57       0.1000E-07        284
                      135        38       135        37       0.1000E-04        285
                      135        58       135        57       0.1000E-07        286
                      136        38       136        37       0.1000E-04        287
                      136        57       136        58       0.1000E-07        288
                      137        38       137        37       0.1000E-04        289
                      137        57       137        58       0.1000E-07        290
                      138        38       138        37       0.1000E-04        291
                      138        57       139        57       0.1000E-07        292
                      138        57       138        58       0.1000E-07        293
                      139        38       139        37       0.1000E-04        294
                      139        57       139        56       0.1000E-07        295
                      140        38       140        37       0.1000E-04        296
                      140        57       140        56       0.1000E-07        297
                      141        38       141        37       0.1000E-04        298
                      141        57       141        56       0.1000E-07        299
                      142        38       142        37       0.1000E-04        300
                      142        56       142        57       0.1000E-07        301
                      143        37       142        37       0.1000E-04        302
                      143        37       143        36       0.1000E-04        303
                      143        56       144        56       0.1000E-07        304
                      143        56       143        57       0.1000E-07        305
                      144        37       144        36       0.1000E-04        306
                      144        56       144        55       0.1000E-07        307
                      145        37       145        36       0.1000E-04        308
                      145        55       145        56       0.1000E-07        309
                      146        36       145        36       0.1000E-04        310
                      146        36       146        35       0.1000E-04        311
                      146        55       146        56       0.1000E-07        312
                      147        36       147        35       0.1000E-04        313
                      148        36       148        35       0.1000E-04        314
                      149        36       149        35       0.1000E-04        315
                      150        35       149        35       0.1000E-04        316
                      150        35       150        34       0.1000E-04        317
                      151        35       151        34       0.1000E-04        318
                       70        37        71        37       0.1000E-07        319
                       70        37        70        36       0.1000E-07        320
                       69        37        69        36       0.1000E-07        321
                       68        37        68        36       0.1000E-07        322
                       67        36        68        36       0.1000E-07        323
                       67        36        67        35       0.1000E-07        324
                       66        36        66        35       0.1000E-07        325
                       65        36        65        35       0.1000E-07        326
                       64        35        65        35       0.1000E-07        327
                       64        35        64        34       0.1000E-07        328
                       63        35        63        34       0.1000E-07        329
                       62        35        62        34       0.1000E-07        330
                      203        33       204        33       0.1000E-03        331
                      204        34       204        33       0.1000E-03        332
                      205        34       204        34       0.1000E-03        333
                      205        35       206        35       0.1000E-03        334
                      205        35       205        34       0.1000E-03        335
                      206        36       207        36       0.1000E-03        336
                      206        36       206        35       0.1000E-03        337
                      207        36       207        37       0.1000E-03        338
                      208        37       209        37       0.1000E-03        339
                      208        37       208        36       0.1000E-03        340
                      209        37       209        38       0.1000E-03        341
                      210        37       210        38       0.1000E-03        342
                      211        37       211        38       0.1000E-03        343
                      212        37       213        37       0.1000E-03        344
                      212        37       212        38       0.1000E-03        345
                      213        37       213        36       0.1000E-03        346
                      214        37       214        36       0.1000E-03        347
                      215        36       215        37       0.1000E-03        348
                      216        36       217        36       0.1000E-03        349
                      216        36       216        37       0.1000E-03        350
                      217        36       217        35       0.1000E-03        351
                      218        36       218        35       0.1000E-03        352
                      219        35       219        36       0.1000E-03        353
                      220        35       219        35       0.1000E-03        354
                      220        35       220        34       0.1000E-03        355
                      221        34       220        34       0.1000E-03        356
0  155 HORIZONTAL FLOW BARRIERS IN LAYER    4
                     IROW1     ICOL1     IROW2     ICOL2  HYD. COND./WIDTH  BARRIER NO.
                     -----------------------------------------------------------------------
                       95        44        95        43       0.1000E-07        357
                       96        44        96        43       0.1000E-07        358
                       97        44        97        43       0.1000E-07        359
                       98        44        98        43       0.1000E-07        360
                       99        44        99        43       0.1000E-07        361
                      100        44       100        43       0.1000E-07        362
                      101        44       101        43       0.1000E-07        363
                      102        44       102        43       0.1000E-07        364
                      102        61       102        62       0.1000E-07        365
                      103        44       103        43       0.1000E-07        366
                      103        61       103        62       0.1000E-07        367
                      104        44       104        43       0.1000E-07        368
                      104        61       104        62       0.1000E-07        369
                      105        44       105        43       0.1000E-07        370
                      105        61       105        62       0.1000E-07        371
                      106        44       106        43       0.1000E-07        372
                      106        61       106        62       0.1000E-07        373
                      107        44       107        43       0.1000E-07        374
                      107        61       108        61       0.1000E-07        375
                      107        61       107        62       0.1000E-07        376
                      108        44       108        43       0.1000E-07        377
                      108        60       108        61       0.1000E-07        378
                      109        44       109        43       0.1000E-07        379
                      109        60       109        61       0.1000E-07        380
                      110        44       110        43       0.1000E-07        381
                      110        60       111        60       0.1000E-07        382
                      110        60       110        61       0.1000E-07        383
                      111        44       111        43       0.1000E-07        384
                      111        59       111        60       0.1000E-07        385
                      112        44       112        43       0.1000E-07        386
                      112        59       112        60       0.1000E-07        387
                      113        44       113        43       0.1000E-07        388
                      113        59       114        59       0.1000E-07        389
                      113        59       113        60       0.1000E-07        390
                      114        44       114        43       0.1000E-07        391
                      114        58       114        59       0.1000E-07        392
                      115        44       115        43       0.1000E-07        393
                      115        58       115        59       0.1000E-07        394
                      116        44       116        43       0.1000E-07        395
                      116        58       116        59       0.1000E-07        396
                      117        44       117        43       0.1000E-07        397
                      117        58       117        59       0.1000E-07        398
                      118        44       118        43       0.1000E-07        399
                      118        58       118        59       0.1000E-07        400
                      119        43       118        43       0.1000E-07        401
                      119        43       119        42       0.1000E-07        402
                      119        58       119        59       0.1000E-07        403
                      120        43       120        42       0.1000E-07        404
                      120        58       120        59       0.1000E-07        405
                      121        43       121        42       0.1000E-07        406
                      121        58       121        59       0.1000E-07        407
                      122        42       123        42       0.1000E-07        408
                      122        42       122        43       0.1000E-07        409
                      122        58       122        59       0.1000E-07        410
                      123        42       123        41       0.1000E-07        411
                      123        58       123        59       0.1000E-07        412
                      124        42       124        41       0.1000E-07        413
                      124        58       124        59       0.1000E-07        414
                      125        41       124        41       0.1000E-07        415
                      125        41       125        40       0.1000E-07        416
                      125        58       125        59       0.1000E-07        417
                      126        41       126        40       0.1000E-07        418
                      126        58       126        57       0.1000E-07        419
                      126        58       125        58       0.1000E-07        420
                      127        40       126        40       0.1000E-07        421
                      127        40       127        39       0.1000E-07        422
                      127        58       127        57       0.1000E-07        423
                      128        40       128        39       0.1000E-07        424
                      128        58       128        57       0.1000E-07        425
                      129        40       129        39       0.1000E-07        426
                      129        58       129        57       0.1000E-07        427
                      130        39       130        40       0.1000E-07        428
                      130        58       130        57       0.1000E-07        429
                      131        39       132        39       0.1000E-07        430
                      131        39       131        40       0.1000E-07        431
                      131        58       131        57       0.1000E-07        432
                      132        39       132        38       0.1000E-07        433
                      132        58       132        57       0.1000E-07        434
                      133        39       133        38       0.1000E-07        435
                      133        58       133        57       0.1000E-07        436
                      134        38       133        38       0.1000E-07        437
                      134        38       134        37       0.1000E-07        438
                      134        58       134        57       0.1000E-07        439
                      135        38       135        37       0.1000E-07        440
                      135        58       135        57       0.1000E-07        441
                      136        38       136        37       0.1000E-07        442
                      136        57       136        58       0.1000E-07        443
                      137        38       137        37       0.1000E-07        444
                      137        57       137        58       0.1000E-07        445
                      138        38       138        37       0.1000E-07        446
                      138        57       139        57       0.1000E-07        447
                      138        57       138        58       0.1000E-07        448
                      139        38       139        37       0.1000E-07        449
                      139        57       139        56       0.1000E-07        450
                      140        38       140        37       0.1000E-07        451
                      140        57       140        56       0.1000E-07        452
                      141        38       141        37       0.1000E-07        453
                      141        57       141        56       0.1000E-07        454
                      142        38       142        37       0.1000E-07        455
                      142        56       142        57       0.1000E-07        456
                      143        37       142        37       0.1000E-07        457
                      143        37       143        36       0.1000E-07        458
                      143        56       144        56       0.1000E-07        459
                      143        56       143        57       0.1000E-07        460
                      144        37       144        36       0.1000E-07        461
                      144        56       144        55       0.1000E-07        462
                      145        37       145        36       0.1000E-07        463
                      145        55       145        56       0.1000E-07        464
                      146        36       145        36       0.1000E-07        465
                      146        36       146        35       0.1000E-07        466
                      146        55       146        56       0.1000E-07        467
                      147        36       147        35       0.1000E-07        468
                      148        36       148        35       0.1000E-07        469
                      149        36       149        35       0.1000E-07        470
                      150        35       149        35       0.1000E-07        471
                      150        35       150        34       0.1000E-07        472
                      151        35       151        34       0.1000E-07        473
                       70        37        71        37       0.1000E-07        474
                       70        37        70        36       0.1000E-07        475
                       69        37        69        36       0.1000E-07        476
                       68        37        68        36       0.1000E-07        477
                       67        36        68        36       0.1000E-07        478
                       67        36        67        35       0.1000E-07        479
                       66        36        66        35       0.1000E-07        480
                       65        36        65        35       0.1000E-07        481
                       64        35        65        35       0.1000E-07        482
                       64        35        64        34       0.1000E-07        483
                       63        35        63        34       0.1000E-07        484
                       62        35        62        34       0.1000E-07        485
                      203        33       204        33       0.1000E-03        486
                      204        34       204        33       0.1000E-03        487
                      205        34       204        34       0.1000E-03        488
                      205        35       206        35       0.1000E-03        489
                      205        35       205        34       0.1000E-03        490
                      206        36       207        36       0.1000E-03        491
                      206        36       206        35       0.1000E-03        492
                      207        36       207        37       0.1000E-03        493
                      208        37       209        37       0.1000E-03        494
                      208        37       208        36       0.1000E-03        495
                      209        37       209        38       0.1000E-03        496
                      210        37       210        38       0.1000E-03        497
                      211        37       211        38       0.1000E-03        498
                      212        37       213        37       0.1000E-03        499
                      212        37       212        38       0.1000E-03        500
                      213        37       213        36       0.1000E-03        501
                      214        37       214        36       0.1000E-03        502
                      215        36       215        37       0.1000E-03        503
                      216        36       217        36       0.1000E-03        504
                      216        36       216        37       0.1000E-03        505
                      217        36       217        35       0.1000E-03        506
                      218        36       218        35       0.1000E-03        507
                      219        35       219        36       0.1000E-03        508
                      220        35       219        35       0.1000E-03        509
                      220        35       220        34       0.1000E-03        510
                      221        34       220        34       0.1000E-03        511
0  155 HORIZONTAL FLOW BARRIERS IN LAYER    5
                     IROW1     ICOL1     IROW2     ICOL2  HYD. COND./WIDTH  BARRIER NO.
                     -----------------------------------------------------------------------
                       95        44        95        43       0.1000E-07        512
                       96        44        96        43       0.1000E-07        513
                       97        44        97        43       0.1000E-07        514
                       98        44        98        43       0.1000E-07        515
                       99        44        99        43       0.1000E-07        516
                      100        44       100        43       0.1000E-07        517
                      101        44       101        43       0.1000E-07        518
                      102        44       102        43       0.1000E-07        519
                      102        61       102        62       0.1000E-07        520
                      103        44       103        43       0.1000E-07        521
                      103        61       103        62       0.1000E-07        522
                      104        44       104        43       0.1000E-07        523
                      104        61       104        62       0.1000E-07        524
                      105        44       105        43       0.1000E-07        525
                      105        61       105        62       0.1000E-07        526
                      106        44       106        43       0.1000E-07        527
                      106        61       106        62       0.1000E-07        528
                      107        44       107        43       0.1000E-07        529
                      107        61       108        61       0.1000E-07        530
                      107        61       107        62       0.1000E-07        531
                      108        44       108        43       0.1000E-07        532
                      108        60       108        61       0.1000E-07        533
                      109        44       109        43       0.1000E-07        534
                      109        60       109        61       0.1000E-07        535
                      110        44       110        43       0.1000E-07        536
                      110        60       111        60       0.1000E-07        537
                      110        60       110        61       0.1000E-07        538
                      111        44       111        43       0.1000E-07        539
                      111        59       111        60       0.1000E-07        540
                      112        44       112        43       0.1000E-07        541
                      112        59       112        60       0.1000E-07        542
                      113        44       113        43       0.1000E-07        543
                      113        59       114        59       0.1000E-07        544
                      113        59       113        60       0.1000E-07        545
                      114        44       114        43       0.1000E-07        546
                      114        58       114        59       0.1000E-07        547
                      115        44       115        43       0.1000E-07        548
                      115        58       115        59       0.1000E-07        549
                      116        44       116        43       0.1000E-07        550
                      116        58       116        59       0.1000E-07        551
                      117        44       117        43       0.1000E-07        552
                      117        58       117        59       0.1000E-07        553
                      118        44       118        43       0.1000E-07        554
                      118        58       118        59       0.1000E-07        555
                      119        43       118        43       0.1000E-07        556
                      119        43       119        42       0.1000E-07        557
                      119        58       119        59       0.1000E-07        558
                      120        43       120        42       0.1000E-07        559
                      120        58       120        59       0.1000E-07        560
                      121        43       121        42       0.1000E-07        561
                      121        58       121        59       0.1000E-07        562
                      122        42       123        42       0.1000E-07        563
                      122        42       122        43       0.1000E-07        564
                      122        58       122        59       0.1000E-07        565
                      123        42       123        41       0.1000E-07        566
                      123        58       123        59       0.1000E-07        567
                      124        42       124        41       0.1000E-07        568
                      124        58       124        59       0.1000E-07        569
                      125        41       124        41       0.1000E-07        570
                      125        41       125        40       0.1000E-07        571
                      125        58       125        59       0.1000E-07        572
                      126        41       126        40       0.1000E-07        573
                      126        58       126        57       0.1000E-07        574
                      126        58       125        58       0.1000E-07        575
                      127        40       126        40       0.1000E-07        576
                      127        40       127        39       0.1000E-07        577
                      127        58       127        57       0.1000E-07        578
                      128        40       128        39       0.1000E-07        579
                      128        58       128        57       0.1000E-07        580
                      129        40       129        39       0.1000E-07        581
                      129        58       129        57       0.1000E-07        582
                      130        39       130        40       0.1000E-07        583
                      130        58       130        57       0.1000E-07        584
                      131        39       132        39       0.1000E-07        585
                      131        39       131        40       0.1000E-07        586
                      131        58       131        57       0.1000E-07        587
                      132        39       132        38       0.1000E-07        588
                      132        58       132        57       0.1000E-07        589
                      133        39       133        38       0.1000E-07        590
                      133        58       133        57       0.1000E-07        591
                      134        38       133        38       0.1000E-07        592
                      134        38       134        37       0.1000E-07        593
                      134        58       134        57       0.1000E-07        594
                      135        38       135        37       0.1000E-07        595
                      135        58       135        57       0.1000E-07        596
                      136        38       136        37       0.1000E-07        597
                      136        57       136        58       0.1000E-07        598
                      137        38       137        37       0.1000E-07        599
                      137        57       137        58       0.1000E-07        600
                      138        38       138        37       0.1000E-07        601
                      138        57       139        57       0.1000E-07        602
                      138        57       138        58       0.1000E-07        603
                      139        38       139        37       0.1000E-07        604
                      139        57       139        56       0.1000E-07        605
                      140        38       140        37       0.1000E-07        606
                      140        57       140        56       0.1000E-07        607
                      141        38       141        37       0.1000E-07        608
                      141        57       141        56       0.1000E-07        609
                      142        38       142        37       0.1000E-07        610
                      142        56       142        57       0.1000E-07        611
                      143        37       142        37       0.1000E-07        612
                      143        37       143        36       0.1000E-07        613
                      143        56       144        56       0.1000E-07        614
                      143        56       143        57       0.1000E-07        615
                      144        37       144        36       0.1000E-07        616
                      144        56       144        55       0.1000E-07        617
                      145        37       145        36       0.1000E-07        618
                      145        55       145        56       0.1000E-07        619
                      146        36       145        36       0.1000E-07        620
                      146        36       146        35       0.1000E-07        621
                      146        55       146        56       0.1000E-07        622
                      147        36       147        35       0.1000E-07        623
                      148        36       148        35       0.1000E-07        624
                      149        36       149        35       0.1000E-07        625
                      150        35       149        35       0.1000E-07        626
                      150        35       150        34       0.1000E-07        627
                      151        35       151        34       0.1000E-07        628
                       70        37        71        37       0.1000E-07        629
[...]
   TIME STEP LENGTH 1.4116345E+07  235272.4      3921.207      163.3836     0.4473200    
 STRESS PERIOD TIME 2.3386248E+08  3897708.      64961.80      2706.742      7.410655    
         TOTAL TIME 2.3386248E+08  3897708.      64961.80      2706.742      7.410655    
 OUTER ITERATION NUMBER:     1
 BACKTRACK COUNT=  0 ACCEPTED RESIDUAL=   757.9256    INCOMING RESIDUAL=   757.9256    IBT=  0
 MAT1S did not converge
     1 ITERATIONS FOR TIME STEP       77 IN STRESS PERIOD       1

 MAXIMUM HEAD CHANGE FOR EACH ITERATION:

    HEAD CHANGE   HEAD CHANGE   HEAD CHANGE   HEAD CHANGE   HEAD CHANGE
  LAYER,ROW,COL LAYER,ROW,COL LAYER,ROW,COL LAYER,ROW,COL LAYER,ROW,COL
 ----------------------------------------------------------------------
    -0.9769E-01
  (  2,167, 48)


 MAXIMUM HEAD CHANGE IN FWL5 FOR EACH ITERATION:

    HEAD CHANGE   HEAD CHANGE   HEAD CHANGE   HEAD CHANGE   HEAD CHANGE
  WELL,  LAYER  WELL,  LAYER  WELL,  LAYER  WELL,  LAYER  WELL,  LAYER 
 ----------------------------------------------------------------------
      0.000    
  (   167,  2)



          TIME SUMMARY AT END OF TIME STEP        77 IN STRESS PERIOD         1
                    SECONDS       MINUTES        HOURS         DAYS          YEARS
                    -------------------------------------------------------------------
   TIME STEP LENGTH 1.5527980E+07  258799.7      4313.328      179.7220     0.4920520    
 STRESS PERIOD TIME 2.4939045E+08  4156508.      69275.12      2886.464      7.902707    
         TOTAL TIME 2.4939045E+08  4156508.      69275.12      2886.464      7.902707    
 OUTER ITERATION NUMBER:     1
 BACKTRACK COUNT=  0 ACCEPTED RESIDUAL=   659.2558    INCOMING RESIDUAL=   659.2558    IBT=  0
 MAT1S did not converge
     1 ITERATIONS FOR TIME STEP       78 IN STRESS PERIOD       1

 MAXIMUM HEAD CHANGE FOR EACH ITERATION:

    HEAD CHANGE   HEAD CHANGE   HEAD CHANGE   HEAD CHANGE   HEAD CHANGE
  LAYER,ROW,COL LAYER,ROW,COL LAYER,ROW,COL LAYER,ROW,COL LAYER,ROW,COL
 ----------------------------------------------------------------------
    -0.8747E-01
  (  1,167, 48)


 MAXIMUM HEAD CHANGE IN FWL5 FOR EACH ITERATION:

    HEAD CHANGE   HEAD CHANGE   HEAD CHANGE   HEAD CHANGE   HEAD CHANGE
  WELL,  LAYER  WELL,  LAYER  WELL,  LAYER  WELL,  LAYER  WELL,  LAYER 
 ----------------------------------------------------------------------
      0.000    
  (   167,  1)



          TIME SUMMARY AT END OF TIME STEP        78 IN STRESS PERIOD         1
                    SECONDS       MINUTES        HOURS         DAYS          YEARS
                    -------------------------------------------------------------------
   TIME STEP LENGTH 1.7080778E+07  284679.6      4744.661      197.6942     0.5412572    
 STRESS PERIOD TIME 2.6647123E+08  4441187.      74019.78      3084.157      8.443963    
         TOTAL TIME 2.6647123E+08  4441187.      74019.78      3084.157      8.443963    
 OUTER ITERATION NUMBER:     1
 BACKTRACK COUNT=  0 ACCEPTED RESIDUAL=   979.1622    INCOMING RESIDUAL=   979.1622    IBT=  0
 MAT1S did not converge
     1 ITERATIONS FOR TIME STEP       79 IN STRESS PERIOD       1

 MAXIMUM HEAD CHANGE FOR EACH ITERATION:

    HEAD CHANGE   HEAD CHANGE   HEAD CHANGE   HEAD CHANGE   HEAD CHANGE
  LAYER,ROW,COL LAYER,ROW,COL LAYER,ROW,COL LAYER,ROW,COL LAYER,ROW,COL
 ----------------------------------------------------------------------
    -0.8362E-01
  (  1,167, 48)


 MAXIMUM HEAD CHANGE IN FWL5 FOR EACH ITERATION:

    HEAD CHANGE   HEAD CHANGE   HEAD CHANGE   HEAD CHANGE   HEAD CHANGE
  WELL,  LAYER  WELL,  LAYER  WELL,  LAYER  WELL,  LAYER  WELL,  LAYER 
 ----------------------------------------------------------------------
      0.000    
  (   167,  1)



          TIME SUMMARY AT END OF TIME STEP        79 IN STRESS PERIOD         1
                    SECONDS       MINUTES        HOURS         DAYS          YEARS
                    -------------------------------------------------------------------
   TIME STEP LENGTH 1.8788856E+07  313147.6      5219.126      217.4636     0.5953829    
 STRESS PERIOD TIME 2.8526010E+08  4754335.      79238.91      3301.621      9.039347    
         TOTAL TIME 2.8526010E+08  4754335.      79238.91      3301.621      9.039347    
 OUTER ITERATION NUMBER:     1
 BACKTRACK COUNT=  0 ACCEPTED RESIDUAL=   1180.452    INCOMING RESIDUAL=   1180.452    IBT=  0
 MAT1S did not converge
 OUTER ITERATION NUMBER:     2
 BACKTRACK COUNT=  0 ACCEPTED RESIDUAL=   1.505026    INCOMING RESIDUAL=   1.505026    IBT=  0
 MAT1S did not converge
 OUTER ITERATION NUMBER:     3
 BACKTRACK COUNT=  0 ACCEPTED RESIDUAL=  0.4865412    INCOMING RESIDUAL=  0.4865412    IBT=  0
 MAT1S did not converge
     3 ITERATIONS FOR TIME STEP       80 IN STRESS PERIOD       1

 MAXIMUM HEAD CHANGE FOR EACH ITERATION:

    HEAD CHANGE   HEAD CHANGE   HEAD CHANGE   HEAD CHANGE   HEAD CHANGE
  LAYER,ROW,COL LAYER,ROW,COL LAYER,ROW,COL LAYER,ROW,COL LAYER,ROW,COL
 ----------------------------------------------------------------------
    -0.1914       -0.3686        0.7263E-01
  ( 12,236, 55) (  1,236, 55) (  1,236, 55)


 MAXIMUM HEAD CHANGE IN FWL5 FOR EACH ITERATION:

    HEAD CHANGE   HEAD CHANGE   HEAD CHANGE   HEAD CHANGE   HEAD CHANGE
  WELL,  LAYER  WELL,  LAYER  WELL,  LAYER  WELL,  LAYER  WELL,  LAYER 
 ----------------------------------------------------------------------
      0.000         0.000         0.000    
  (   236, 12) (   236,  1) (   236,  1)



          TIME SUMMARY AT END OF TIME STEP        80 IN STRESS PERIOD         1
                    SECONDS       MINUTES        HOURS         DAYS          YEARS
                    -------------------------------------------------------------------
   TIME STEP LENGTH 2.0667742E+07  344462.4      5741.040      239.2100     0.6549212    
 STRESS PERIOD TIME 3.0592784E+08  5098798.      84979.96      3540.832      9.694269    
         TOTAL TIME 3.0592784E+08  5098798.      84979.96      3540.832      9.694269    
 OUTER ITERATION NUMBER:     1
 BACKTRACK COUNT=  0 ACCEPTED RESIDUAL=   799.0197    INCOMING RESIDUAL=   799.0197    IBT=  0
 MAT1S did not converge
 OUTER ITERATION NUMBER:     2
 BACKTRACK COUNT=  0 ACCEPTED RESIDUAL=   2.909686    INCOMING RESIDUAL=   2.909686    IBT=  0
 MAT1S did not converge
 OUTER ITERATION NUMBER:     3
 BACKTRACK COUNT=  0 ACCEPTED RESIDUAL=  0.4801462    INCOMING RESIDUAL=  0.4801462    IBT=  0
 MAT1S did not converge
     3 ITERATIONS FOR TIME STEP       81 IN STRESS PERIOD       1

 MAXIMUM HEAD CHANGE FOR EACH ITERATION:

    HEAD CHANGE   HEAD CHANGE   HEAD CHANGE   HEAD CHANGE   HEAD CHANGE
  LAYER,ROW,COL LAYER,ROW,COL LAYER,ROW,COL LAYER,ROW,COL LAYER,ROW,COL
 ----------------------------------------------------------------------
    -0.6556        0.1700        0.7857E-01
  ( 12,236, 55) ( 12,236, 55) (  1,255, 79)


 MAXIMUM HEAD CHANGE IN FWL5 FOR EACH ITERATION:

    HEAD CHANGE   HEAD CHANGE   HEAD CHANGE   HEAD CHANGE   HEAD CHANGE
  WELL,  LAYER  WELL,  LAYER  WELL,  LAYER  WELL,  LAYER  WELL,  LAYER 
 ----------------------------------------------------------------------
      0.000         0.000         0.000    
  (   236, 12) (   236, 12) (   255,  1)



          TIME SUMMARY AT END OF TIME STEP        81 IN STRESS PERIOD         1
                    SECONDS       MINUTES        HOURS         DAYS          YEARS
                    -------------------------------------------------------------------
   TIME STEP LENGTH 2.2734516E+07  378908.6      6315.143      263.1310     0.7204133    
 STRESS PERIOD TIME 3.2866234E+08  5477706.      91295.09      3803.962      10.41468    
         TOTAL TIME 3.2866234E+08  5477706.      91295.09      3803.962      10.41468    
 OUTER ITERATION NUMBER:     1
 BACKTRACK COUNT=  0 ACCEPTED RESIDUAL=   1568.240    INCOMING RESIDUAL=   1568.240    IBT=  0
 MAT1S did not converge
 OUTER ITERATION NUMBER:     2
 BACKTRACK COUNT=  0 ACCEPTED RESIDUAL=   2.649334    INCOMING RESIDUAL=   2.649334    IBT=  0
 Convergence in           10  iterations
     2 ITERATIONS FOR TIME STEP       82 IN STRESS PERIOD       1

 MAXIMUM HEAD CHANGE FOR EACH ITERATION:

    HEAD CHANGE   HEAD CHANGE   HEAD CHANGE   HEAD CHANGE   HEAD CHANGE
  LAYER,ROW,COL LAYER,ROW,COL LAYER,ROW,COL LAYER,ROW,COL LAYER,ROW,COL
 ----------------------------------------------------------------------
    -0.3624        0.4055E-01
  ( 12,236, 55) ( 12,236, 55)


 MAXIMUM HEAD CHANGE IN FWL5 FOR EACH ITERATION:

    HEAD CHANGE   HEAD CHANGE   HEAD CHANGE   HEAD CHANGE   HEAD CHANGE
  WELL,  LAYER  WELL,  LAYER  WELL,  LAYER  WELL,  LAYER  WELL,  LAYER 
 ----------------------------------------------------------------------
      0.000         0.000    
  (   236, 12) (   236, 12)



          TIME SUMMARY AT END OF TIME STEP        82 IN STRESS PERIOD         1
                    SECONDS       MINUTES        HOURS         DAYS          YEARS
                    -------------------------------------------------------------------
   TIME STEP LENGTH 2.5007970E+07  416799.5      6946.658      289.4441     0.7924547    
 STRESS PERIOD TIME 3.5367030E+08  5894505.      98241.75      4093.406      11.20714    
         TOTAL TIME 3.5367030E+08  5894505.      98241.75      4093.406      11.20714    
 OUTER ITERATION NUMBER:     1
 BACKTRACK COUNT=  0 ACCEPTED RESIDUAL=   1104.840    INCOMING RESIDUAL=   1104.840    IBT=  0
 MAT1S did not converge
 OUTER ITERATION NUMBER:     2
 BACKTRACK COUNT=  0 ACCEPTED RESIDUAL=   3.541440    INCOMING RESIDUAL=   3.541440    IBT=  0
 MAT1S did not converge
 OUTER ITERATION NUMBER:     3
 BACKTRACK COUNT=  0 ACCEPTED RESIDUAL=   1.792828    INCOMING RESIDUAL=   1.792828    IBT=  0
 MAT1S did not converge
 OUTER ITERATION NUMBER:     4
 BACKTRACK COUNT=  0 ACCEPTED RESIDUAL=   1.011140    INCOMING RESIDUAL=   1.011140    IBT=  0
 MAT1S did not converge
     4 ITERATIONS FOR TIME STEP       83 IN STRESS PERIOD       1

 MAXIMUM HEAD CHANGE FOR EACH ITERATION:

    HEAD CHANGE   HEAD CHANGE   HEAD CHANGE   HEAD CHANGE   HEAD CHANGE
  LAYER,ROW,COL LAYER,ROW,COL LAYER,ROW,COL LAYER,ROW,COL LAYER,ROW,COL
 ----------------------------------------------------------------------
    -0.2196       -0.1308       -0.1723        0.7953E-01
  (  1,236, 55) (  1,235, 54) ( 12,188,194) ( 12,188,194)


 MAXIMUM HEAD CHANGE IN FWL5 FOR EACH ITERATION:

    HEAD CHANGE   HEAD CHANGE   HEAD CHANGE   HEAD CHANGE   HEAD CHANGE
  WELL,  LAYER  WELL,  LAYER  WELL,  LAYER  WELL,  LAYER  WELL,  LAYER 
 ----------------------------------------------------------------------
      0.000         0.000         0.000         0.000    
  (   236,  1) (   235,  1) (   188, 12) (   188, 12)



          TIME SUMMARY AT END OF TIME STEP        83 IN STRESS PERIOD         1
                    SECONDS       MINUTES        HOURS         DAYS          YEARS
                    -------------------------------------------------------------------
   TIME STEP LENGTH 2.7508766E+07  458479.4      7641.324      318.3885     0.8717002    
 STRESS PERIOD TIME 3.8117907E+08  6352984.      105883.1      4411.795      12.07884    
         TOTAL TIME 3.8117907E+08  6352984.      105883.1      4411.795      12.07884    
 OUTER ITERATION NUMBER:     1
 BACKTRACK COUNT=  0 ACCEPTED RESIDUAL=   1054.303    INCOMING RESIDUAL=   1054.303    IBT=  0
 MAT1S did not converge
 OUTER ITERATION NUMBER:     2
 BACKTRACK COUNT=  0 ACCEPTED RESIDUAL=   4.157541    INCOMING RESIDUAL=   4.157541    IBT=  0
 MAT1S did not converge
 OUTER ITERATION NUMBER:     3
 BACKTRACK COUNT=  0 ACCEPTED RESIDUAL=   3.125769    INCOMING RESIDUAL=   3.125769    IBT=  0
 MAT1S did not converge
 OUTER ITERATION NUMBER:     4
 BACKTRACK COUNT=  0 ACCEPTED RESIDUAL=   1.417754    INCOMING RESIDUAL=   1.417754    IBT=  0
 MAT1S did not converge
 OUTER ITERATION NUMBER:     5
 BACKTRACK COUNT=  0 ACCEPTED RESIDUAL=   1.018257    INCOMING RESIDUAL=   1.018257    IBT=  0
 MAT1S did not converge
     5 ITERATIONS FOR TIME STEP       84 IN STRESS PERIOD       1

 MAXIMUM HEAD CHANGE FOR EACH ITERATION:

    HEAD CHANGE   HEAD CHANGE   HEAD CHANGE   HEAD CHANGE   HEAD CHANGE
  LAYER,ROW,COL LAYER,ROW,COL LAYER,ROW,COL LAYER,ROW,COL LAYER,ROW,COL
 ----------------------------------------------------------------------
    -0.2509        0.1345       -0.1101       -0.1028        0.9589E-01
  (  1,235, 54) (  1,186,191) (  1,186,191) ( 12,188,194) ( 12,188,194)


 MAXIMUM HEAD CHANGE IN FWL5 FOR EACH ITERATION:

    HEAD CHANGE   HEAD CHANGE   HEAD CHANGE   HEAD CHANGE   HEAD CHANGE
  WELL,  LAYER  WELL,  LAYER  WELL,  LAYER  WELL,  LAYER  WELL,  LAYER 
 ----------------------------------------------------------------------
      0.000         0.000         0.000         0.000         0.000    
  (   235,  1) (   186,  1) (   186,  1) (   188, 12) (   188, 12)



          TIME SUMMARY AT END OF TIME STEP        84 IN STRESS PERIOD         1
                    SECONDS       MINUTES        HOURS         DAYS          YEARS
                    -------------------------------------------------------------------
   TIME STEP LENGTH 2.7648000E+07  460800.0      7680.000      320.0000     0.8761122    
 STRESS PERIOD TIME 4.0882707E+08  6813784.      113563.1      4731.795      12.95495    
         TOTAL TIME 4.0882707E+08  6813784.      113563.1      4731.795      12.95495    
 OUTER ITERATION NUMBER:     1
 BACKTRACK COUNT=  0 ACCEPTED RESIDUAL=   908.5273    INCOMING RESIDUAL=   908.5273    IBT=  0
 MAT1S did not converge
 OUTER ITERATION NUMBER:     2
 BACKTRACK COUNT=  0 ACCEPTED RESIDUAL=   1.519788    INCOMING RESIDUAL=   1.519788    IBT=  0
 Convergence in           12  iterations
     2 ITERATIONS FOR TIME STEP       85 IN STRESS PERIOD       1

 MAXIMUM HEAD CHANGE FOR EACH ITERATION:

    HEAD CHANGE   HEAD CHANGE   HEAD CHANGE   HEAD CHANGE   HEAD CHANGE
  LAYER,ROW,COL LAYER,ROW,COL LAYER,ROW,COL LAYER,ROW,COL LAYER,ROW,COL
 ----------------------------------------------------------------------
    -0.1597       -0.3707E-01
  ( 12,235, 54) ( 12,164, 59)


 MAXIMUM HEAD CHANGE IN FWL5 FOR EACH ITERATION:

    HEAD CHANGE   HEAD CHANGE   HEAD CHANGE   HEAD CHANGE   HEAD CHANGE
  WELL,  LAYER  WELL,  LAYER  WELL,  LAYER  WELL,  LAYER  WELL,  LAYER 
 ----------------------------------------------------------------------
      0.000         0.000    
  (   235, 12) (   164, 12)
 UBUDSV SAVING "         STORAGE" ON UNIT    50 AT TIME STEP    85, STRESS PERIOD     1
 UBUDSV SAVING "   CONSTANT HEAD" ON UNIT    50 AT TIME STEP    85, STRESS PERIOD     1
 UBUDSV SAVING "FLOW RIGHT FACE " ON UNIT    50 AT TIME STEP    85, STRESS PERIOD     1
 UBUDSV SAVING "FLOW FRONT FACE " ON UNIT    50 AT TIME STEP    85, STRESS PERIOD     1
 UBUDSV SAVING "FLOW LOWER FACE " ON UNIT    50 AT TIME STEP    85, STRESS PERIOD     1
 UBUDSV SAVING "     WL5 STORAGE" ON UNIT   155 AT TIME STEP    85, STRESS PERIOD     1
 UBUDSV SAVING "        WL5 FLOW" ON UNIT   155 AT TIME STEP    85, STRESS PERIOD     1
 UBUDSV SAVING "FLOW WL5 BOT FCE" ON UNIT   155 AT TIME STEP    85, STRESS PERIOD     1
 UBUDSV SAVING "WL5 CELL TO WELL" ON UNIT   155 AT TIME STEP    85, STRESS PERIOD     1
 UBUDSV SAVING "           WELLS" ON UNIT    50 AT TIME STEP    85, STRESS PERIOD     1
 UBUDSV SAVING "          DRAINS" ON UNIT    50 AT TIME STEP    85, STRESS PERIOD     1
 UBUDSV SAVING "        RECHARGE" ON UNIT    50 AT TIME STEP    85, STRESS PERIOD     1

 HEAD WILL BE SAVED ON UNIT  30 AT END OF TIME STEP        85, STRESS PERIOD       1

 DRAWDOWN WILL BE SAVED ON UNIT  31 AT END OF TIME STEP        85, STRESS PERIOD       1
1
  VOLUMETRIC BUDGET FOR ENTIRE MODEL AT END OF TIME STEP      85 IN STRESS PERIOD       1
  -----------------------------------------------------------------------------

     CUMULATIVE VOLUMES      L**3       RATES FOR THIS TIME STEP      L**3/T
     ------------------                 ------------------------

           IN:                                      IN:
           ---                                      ---
             STORAGE =      700365.5625               STORAGE =          22.7060
       CONSTANT HEAD =           0.0000         CONSTANT HEAD =           0.0000
         WL5 STORAGE =           0.0000           WL5 STORAGE =           0.0000
            WL5 FLOW =           0.0000              WL5 FLOW =           0.0000
               WELLS =     1696585.1250                 WELLS =         339.3170
              DRAINS =           0.0000                DRAINS =           0.0000
            RECHARGE =   485011552.0000              RECHARGE =       97002.3125

            TOTAL IN =   487408502.6875              TOTAL IN =       97364.3356

          OUT:                                     OUT:
          ----                                     ----
             STORAGE =     2041050.2500               STORAGE =         295.9458
       CONSTANT HEAD =           0.0000         CONSTANT HEAD =           0.0000
         WL5 STORAGE =           0.0000           WL5 STORAGE =           0.0000
            WL5 FLOW =           0.0000              WL5 FLOW =           0.0000
               WELLS =      470000.0312                 WELLS =          94.0000
              DRAINS =   484829216.0000                DRAINS =       97038.9609
            RECHARGE =           0.0000              RECHARGE =           0.0000

           TOTAL OUT =   487340266.2812             TOTAL OUT =       97428.9067

            IN - OUT =       68236.4062              IN - OUT =         -64.5712

 PERCENT DISCREPANCY =           0.01     PERCENT DISCREPANCY =          -0.07






          TIME SUMMARY AT END OF TIME STEP        85 IN STRESS PERIOD         1
                    SECONDS       MINUTES        HOURS         DAYS          YEARS
                    -------------------------------------------------------------------
   TIME STEP LENGTH 2.3172916E+07  386215.3      6436.921      268.2050     0.7343054    
 STRESS PERIOD TIME 4.3200000E+08  7200000.      120000.0      5000.000      13.68925    
         TOTAL TIME 4.3200000E+08  7200000.      120000.0      5000.000      13.68925    
1
 OUTER ITERATION NUMBER:     1
 BACKTRACK COUNT=  0 ACCEPTED RESIDUAL=   1198.322    INCOMING RESIDUAL=   1198.322    IBT=  0
 MAT1S did not converge
 OUTER ITERATION NUMBER:     2
 BACKTRACK COUNT=  0 ACCEPTED RESIDUAL=   17.92282    INCOMING RESIDUAL=   17.92282    IBT=  0
 MAT1S did not converge
     2 ITERATIONS FOR TIME STEP       86 IN STRESS PERIOD       1

 MAXIMUM HEAD CHANGE FOR EACH ITERATION:

    HEAD CHANGE   HEAD CHANGE   HEAD CHANGE   HEAD CHANGE   HEAD CHANGE
  LAYER,ROW,COL LAYER,ROW,COL LAYER,ROW,COL LAYER,ROW,COL LAYER,ROW,COL
 ----------------------------------------------------------------------
    -0.1444       -0.4480E-01
  ( 12,235, 54) (  1,164, 59)


 MAXIMUM HEAD CHANGE IN FWL5 FOR EACH ITERATION:

    HEAD CHANGE   HEAD CHANGE   HEAD CHANGE   HEAD CHANGE   HEAD CHANGE
  WELL,  LAYER  WELL,  LAYER  WELL,  LAYER  WELL,  LAYER  WELL,  LAYER 
 ----------------------------------------------------------------------
      0.000         0.000    
  (   235, 12) (   164,  1)



          TIME SUMMARY AT END OF TIME STEP        86 IN STRESS PERIOD         1
                    SECONDS       MINUTES        HOURS         DAYS          YEARS
                    -------------------------------------------------------------------
   TIME STEP LENGTH 2.5490210E+07  424836.8      7080.614      295.0256     0.8077361    
 STRESS PERIOD TIME 4.5749021E+08  7624837.      127080.6      5295.026      14.49699    
         TOTAL TIME 4.5749021E+08  7624837.      127080.6      5295.026      14.49699    
 OUTER ITERATION NUMBER:     1
 BACKTRACK COUNT=  0 ACCEPTED RESIDUAL=   1460.345    INCOMING RESIDUAL=   1460.345    IBT=  0
 MAT1S did not converge
 OUTER ITERATION NUMBER:     2
 BACKTRACK COUNT=  0 ACCEPTED RESIDUAL=   3.249449    INCOMING RESIDUAL=   3.249449    IBT=  0
